LAMMPS (2 Aug 2023 - Update 3)
atom_style      atomic
units           metal
boundary        p p p

variable        a0 equal 2.835
variable        Ln equal 5

lattice         bcc 2.835
Lattice spacing in x,y,z = 2.835 2.835 2.835
region          region1 block 0 5 0 5 0 5 units lattice
create_box      1 region1
Created orthogonal box = (0 0 0) to (14.175 14.175 14.175)

variable        z0 equal 2.835*0.6
create_atoms    1 box
Created 250 atoms
create_atoms    1 single 0 0 1.701 units box
Created 1 atoms

pair_style hybrid/overlay aenet/cc Econnect 0.7 1.5 zbl 0.7 1.5
pair_coeff      * * aenet/cc v03 Fe 10sw-10sw.nn Fe
pair_coeff      * * zbl 26.0 26.0
mass            * 55.845

velocity        all create 100 12345 dist gaussian

run 0
Step          Temp          E_pair         E_mol          TotEng         Press
0   100           -1124396.8      0             -1124393.6      87014.793
Loop time of 3.322e-06 on 2 procs for 0 steps with 251 atoms

variable        etmp equal etotal
variable        e0 equal -1124393.61680314

reset_timestep  0
timestep        0.000005

variable        dH equal etotal--1124393.61680314

thermo_style    custom step etotal v_dH pe ke temp press
thermo          100

#dump            d2 all cfg 50000 *.cfg mass type xs ys zs fx fy fz
#dump_modify     d2 element Fe

fix             f1 all nve
run             10000
Step         TotEng          v_dH          PotEng         KinEng          Temp          Press
0  -1124393.6      1.6298145e-09 -1124396.8      3.2315036      100            87014.793
Averages over the last 51 of 101 rows, steps 5000 to 10000:
TotEng v_dH PotEng KinEng Temp Press
-1.12439e+06 -1.63777e-05 -1.12442e+06 27.9088 863.648 75623.9
Loop time of 90.5227 on 2 procs for 10000 steps with 251 atoms
