LAMMPS (2 Aug 2023)
atom_style      atomic
units           metal
boundary        p p p

lattice         bcc 2.83517
Lattice spacing in x,y,z = 2.83517 2.83517 2.83517
region          region1 block 0 2 0 2 0 2 units lattice
create_box      1 region1
Created orthogonal box = (0 0 0) to (5.67034 5.67034 5.67034)

create_atoms    1 box
Created 16 atoms

pair_style      aenet/cc
pair_coeff      * * v01 Fe 10tw-10tw.ann Fe
mass            1 55.845

thermo_style    custom step etotal pe ke temp vol press
thermo          100

reset_timestep  0
timestep        0.0005

velocity        all create 500 12345 dist gaussian

fix             f1 all nve
run             1000
Step         TotEng         PotEng         KinEng          Temp          Volume         Press
0  -71677.189     -71678.158      0.96945109     500            182.31706      6670.9254
Averages over the last 6 of 11 rows, steps 500 to 1000:
TotEng PotEng KinEng Temp Volume Press
-71677.2 -71677.7 0.470265 242.542 182.317 18825.9
Loop time of 32.6319 on 1 procs for 1000 steps with 16 atoms
