LAMMPS (2 Aug 2023)
atom_style      atomic
units           metal
boundary        p p p

lattice         bcc 2.83517
Lattice spacing in x,y,z = 2.83517 2.83517 2.83517
region          region1 block 0 3 0 3 0 3 units lattice
create_box      1 region1
Created orthogonal box = (0 0 0) to (8.50551 8.50551 8.50551)

create_atoms    1 box
Created 54 atoms

pair_style      aenet/cc Eshift
pair_coeff      * * v03 Fe 10sw-10sw.nn Fe
mass            1 55.845

compute        peratom all stress/atom NULL
compute        p all reduce sum c_peratom[1] c_peratom[2] c_peratom[3]
variable       press equal -(c_p[1]+c_p[2]+c_p[3])/(3*vol)
thermo_style   custom step temp etotal pe ke press v_press
thermo         100

reset_timestep  0
timestep        0.0005

velocity        all create 500 12345 dist gaussian

fix             f1 all nve
run             5000
Step          Temp          TotEng         PotEng         KinEng         Press         v_press
0   500           -232.04954     -235.47493      3.4253938      6326.6744      6326.6744
Averages over the last 26 of 51 rows, steps 2500 to 5000:
Temp TotEng PotEng KinEng Press v_press
249.717 -232.049 -233.76 1.71076 18869.9 18869.9
Loop time of 12.1064 on 2 procs for 5000 steps with 54 atoms
